LAMMPS (17 Nov 2015)
# PREREQUISITES:
#
# 1)  You must use moltemplate.sh to create 3 files:
#        system.data  system.in.init  system.in.settings
#     (See README_setup.sh for details.)
#
# 2)  You must then run the minimization simulation beforehand using:
#     lmp_mpi -i run.in.min    (assuming "lmp_mpi" is your lammps binary's name)

# ------------------------------- Initialization Section --------------------

include         system.in.init
	units real
	atom_style full
	pair_style reax/c NULL
boundary p p p

# ------------------------------- Atom Definition Section -------------------

read_data      system.data
  orthogonal box = (-100 -100 -100) to (100 100 100)
  reading atoms ...
  185 atoms

# ------------------------------- Settings Section --------------------------

include         system.in.settings     #(define force fields and constraints)
	pair_style reax/c NULL
	pair_coeff * * ffield.reax Si O Al H X

# ------------------------------- Run Section -------------------------------

# -- files containing trajectory data and other information --

thermo_style    custom step temp pe ke etotal press vol epair ebond eangle edihed
thermo_modify   norm yes
thermo          100
dump            1 all custom 500 traj_npt.lammpstrj id mol type x y z ix iy iz

# -- simulation protocol --

neighbor 3.0 bin

neigh_modify every 2 delay 0 check yes one 3000

group clay type 1 2 3 4 5
185 atoms in group clay

bond_style harmonic
angle_style harmonic

velocity all create 298.0 105112 dist gaussian

fix 1 all qeq/reax 1 0.0 10.0 1.0e-6 reax/c

minimize 1.0e-4 1.0e-6 100 1000
  2 neighbor list requests
  update every 1 steps, delay 0 steps, check yes
Step Temp PotEng KinEng TotEng Press Volume E_pair E_bond E_angle E_dihed
0          298   -74.037082   0.88347987   -73.153602   -13.897735      8000000   -74.037082            0            0            0
Loop time of 0.546121 on 1 procs for 9 steps with 185 atoms

Minimization stats:
  Stopping criterion = energy tolerance
  Energy initial, next-to-last, final =
  Force two-norm initial, final = 2286.45 828.001
  Force max component initial, final = 318.125 208.296
  Final line search alpha, max atom move = 1.923e-11 4.00555e-09
  Iterations, force evaluations = 9 67

fix 2 all nve
fix 3 all langevin 298.0 298.0 100 123345
fix COM clay recenter INIT INIT INIT units box
dump NVE all custom 100 dump.MMT_w1_NVE id mol type q mass x y z vx vy vz
thermo 2000
thermo_style custom step dt spcpu temp press
timestep 0.001
run 10000
  2 neighbor list requests
  update every 2 steps, delay 0 steps, check yes
Step Dt S/CPU Temp Press
9        0.001            0          298    9.8212418
Loop time of 72.8347 on 1 procs for 10000 steps with 185 atoms

timestep 0.5
run 100000
Step Dt S/CPU Temp Press
10009          0.5            0    371.45724    13.206263
   16000          0.5     342.1992          nan          nan
   18000          0.5    9923.0957          nan          nan
   20000          0.5    9943.3267          nan          nan
   22000          0.5    10056.872          nan          nan
   24000          0.5    9635.8536          nan          nan
   26000          0.5    9941.8418          nan          nan
   28000          0.5    9750.9186          nan          nan
   30000          0.5    9424.7563          nan          nan
   32000          0.5    9953.8156          nan          nan
   34000          0.5    9848.8705          nan          nan
   36000          0.5    9976.9481          nan          nan
   38000          0.5    10094.181          nan          nan
   40000          0.5    9989.5658          nan          nan
   42000          0.5    9966.2564          nan          nan
   44000          0.5    9911.5938          nan          nan
   46000          0.5    9959.7129          nan          nan
   48000          0.5    9974.4687          nan          nan
   50000          0.5    9992.8026          nan          nan
   52000          0.5     9968.945          nan          nan
   54000          0.5    10082.522          nan          nan
   56000          0.5    10145.382          nan          nan
   58000          0.5    10153.524          nan          nan
   60000          0.5    10152.283          nan          nan
   62000          0.5    10145.235          nan          nan
   64000          0.5    10086.535          nan          nan
   66000          0.5    10134.278          nan          nan
   68000          0.5    10084.971          nan          nan
   70000          0.5    10113.007          nan          nan
   72000          0.5    10143.174          nan          nan
   74000          0.5    10076.539          nan          nan
   76000          0.5    10129.762          nan          nan
   78000          0.5    10154.704          nan          nan
   80000          0.5    10134.168          nan          nan
   82000          0.5    10148.168          nan          nan
   84000          0.5    10093.416          nan          nan
   86000          0.5    10122.685          nan          nan
   88000          0.5    10135.515          nan          nan
   90000          0.5    10145.481          nan          nan
   92000          0.5    10148.426          nan          nan
   94000          0.5    10107.439          nan          nan
   96000          0.5    10141.985          nan          nan
   98000          0.5    10079.578          nan          nan
  100000          0.5    9934.6831          nan          nan
  102000          0.5    9970.4853          nan          nan
  104000          0.5    10023.357          nan          nan
  106000          0.5    10005.699          nan          nan
  108000          0.5    10003.861          nan          nan
  110000          0.5    10019.586          nan          nan
  110009          0.5    10202.361          nan          nan
Loop time of 38.0369 on 1 procs for 100000 steps with 185 atoms
